[General]

include ../Parameters/Castalia.ini

sim-time-limit = 70s

SN.field_x = 10                                        # meters
SN.field_y = 10                                        # meters
SN.numNodes = 10

SN.node[1..49].ResourceManager.initialEnergy = 100

SN.node[*].Communication.Radio.collectTraceInfo = false
SN.node[*].Communication.Radio.RadioParametersFile = "../Parameters/Radio/CC2420.txt"
SN.node[*].Communication.Radio.symbolsForRSSI = 16
SN.node[*].Communication.Radio.TxOutputPower = "0dBm"
SN.node[*].Communication.MAC.collectTraceInfo = false
SN.node[*].Communication.Routing.collectTraceInfo = true
SN.node[*].Application.collectTraceInfo = false
SN.node[*].MobilityManager.collectTraceInfo = false

SN.wirelessChannel.onlyStaticNodes = true
SN.wirelessChannel.sigma = 0
SN.wirelessChannel.bidirectionalSigma = 0

SN.node[*].ApplicationName = "ThroughputTest"
SN.node[*].Application.packet_rate = 1
		
SN.node[*].Communication.Radio.collisionModel = 0

include ../Parameters/MAC/SMAC.ini
SN.Node[0].Application.isSink = true;
SN.node[*].Communication.MACProtocolName = "TunableMAC"
SN.node[*].Communication.RoutingProtocolName = "AodvRouting"

